Circuit: * D:\Univsersity\2021-3rd Year S2\Design (E) - 344\GitRepo\E344\LTspice\Cilliers_23252162_A1.asc

Direct Newton iteration for .op point succeeded.
Heightened Def Con from 1.00121 to 1.00121

Date: Thu Aug 12 20:04:10 2021
Total elapsed time: 3241.284 seconds.

tnom = 27
temp = 27
method = modified trap
totiter = 801778614
traniter = 801778579
tranpoints = 188538590
accept = 141404181
rejected = 47134410
matrix size = 26
fillins = 9
solver = Normal
Matrix Compiler1: 1.93 KB object code size  0.3/0.2/[0.1]
Matrix Compiler2: 2.14 KB object code size  0.2/0.3/[0.2]

