Circuit: * D:\Univsersity\2021-3rd Year S2\Design (E) - 344\GitRepo\E344\LTspice\A1\E344_23252162_A1.asc

Direct Newton iteration for .op point succeeded.

Date: Sun Sep 12 14:12:25 2021
Total elapsed time: 0.136 seconds.

tnom = 27
temp = 27
method = modified trap
totiter = 5260
traniter = 5232
tranpoints = 2382
accept = 2285
rejected = 97
matrix size = 27
fillins = 4
solver = Normal
Matrix Compiler1: 1.53 KB object code size  0.3/0.2/[0.1]
Matrix Compiler2: off  [0.2]/0.3/0.2

