Circuit: * D:\Univsersity\2021-3rd Year S2\Design (E) - 344\GitRepo\E344\LTspice\A1\E344_23252162_A1 - Copy.asc

WARNING: Less than two connections to node VSUPPLY.  This node is used by RSENSESUPPLY.
WARNING: Less than two connections to node LOADON.  This node is used by V2.
Direct Newton iteration for .op point succeeded.

Date: Thu Aug 26 18:49:46 2021
Total elapsed time: 0.093 seconds.

tnom = 27
temp = 27
method = modified trap
totiter = 4107
traniter = 4083
tranpoints = 2039
accept = 2039
rejected = 0
matrix size = 32
fillins = 5
solver = Normal
Matrix Compiler1: 1.65 KB object code size  0.3/0.2/[0.1]
Matrix Compiler2: off  [0.2]/0.3/0.2

