Circuit: * D:\Univsersity\2021-3rd Year S2\Design (E) - 344\GitRepo\E344\LTspice\A2\E344_23252162_A2.asc

Direct Newton iteration failed to find .op point.  (Use ".option noopiter" to skip.)
Starting Gmin stepping
Gmin = 10
Gmin = 1.07374
Gmin = 0.115292
Gmin = 0.0123794
Gmin = 0.00132923
Gmin = 0.000142725
Gmin = 1.5325e-005
Gmin = 1.6455e-006
Gmin = 1.76685e-007
Gmin = 1.89714e-008
Gmin = 2.03704e-009
Gmin = 2.18725e-010
Gmin = 2.34854e-011
Gmin = 2.52173e-012
Gmin = 2.70769e-013
Gmin = 0
Gmin stepping succeeded in finding the operating point.


Date: Fri Aug 20 16:19:58 2021
Total elapsed time: 0.203 seconds.

tnom = 27
temp = 27
method = modified trap
totiter = 5978
traniter = 5512
tranpoints = 2450
accept = 2345
rejected = 105
matrix size = 56
fillins = 32
solver = Normal
Matrix Compiler1: 6.59 KB object code size  1.0/0.6/[0.4]
Matrix Compiler2: 5.39 KB object code size  0.8/1.0/[0.6]

