Circuit: * D:\Univsersity\2021-3rd Year S2\Design (E) - 344\GitRepo\E344\LTspice\A3\E344_23252162_A3.asc

Direct Newton iteration failed to find .op point.  (Use ".option noopiter" to skip.)
Starting Gmin stepping
Gmin = 10
Gmin = 1.07374
Gmin = 0.115292
Gmin = 0.0123794
Gmin = 0.00132923
Gmin = 0.000142725
Gmin = 1.5325e-005
Gmin = 1.6455e-006
vernier = 0.5
vernier = 0.25
Gmin = 7.37083e-007
vernier = 0.333333
vernier = 0.444444
Gmin = 3.42136e-007
vernier = 0.592592
Gmin = 1.01256e-007
vernier = 0.790123
vernier = 1
Gmin = 1.531e-008
Gmin = 1.6439e-009
Gmin = 1.76512e-010
Gmin = 1.89528e-011
Gmin = 2.03505e-012
Gmin = 2.18511e-013
Gmin = 0
Gmin stepping succeeded in finding the operating point.


Date: Sat Aug 28 09:40:11 2021
Total elapsed time: 0.253 seconds.

tnom = 27
temp = 27
method = modified trap
totiter = 7676
traniter = 6873
tranpoints = 2675
accept = 2213
rejected = 462
matrix size = 59
fillins = 116
solver = Normal
Thread vector: 10.6/7.1[4] 5.0/3.9[4] 1.7/1.3[3] 0.2/0.5[1]  2592/500
Matrix Compiler1: 11.37 KB object code size  1.8/0.9/[0.6]
Matrix Compiler2: 6.80 KB object code size  0.7/0.9/[0.4]

