Circuit: * D:\Univsersity\2021-3rd Year S2\Design (E) - 344\GitRepo\E344\LTspice\A3\E344_XXXXXXXX_A3 - Copy.asc

Direct Newton iteration failed to find .op point.  (Use ".option noopiter" to skip.)
Starting Gmin stepping
Gmin = 10
Gmin = 1.07374
Gmin = 0.115292
Gmin = 0.0123794
Gmin = 0.00132923
Gmin = 0.000142725
Gmin = 1.5325e-005
Gmin = 1.6455e-006
vernier = 0.5
vernier = 0.25
Gmin = 7.37083e-007
vernier = 0.333333
vernier = 0.444444
Gmin = 3.42136e-007
vernier = 0.592592
Gmin = 1.01256e-007
vernier = 0.790123
vernier = 1
Gmin = 1.531e-008
Gmin = 1.6439e-009
Gmin = 1.76512e-010
Gmin = 1.89528e-011
Gmin = 2.03505e-012
Gmin = 2.18511e-013
Gmin = 0
Gmin stepping succeeded in finding the operating point.


Date: Fri Aug 27 13:05:42 2021
Total elapsed time: 0.162 seconds.

tnom = 27
temp = 27
method = modified trap
totiter = 3498
traniter = 2713
tranpoints = 1298
accept = 1228
rejected = 70
matrix size = 49
fillins = 68
solver = Normal
Thread vector: 7.3/5.0[2] 1.8/1.5[2] 1.1/1.0[2] 0.1/0.4[1]  2592/500
Matrix Compiler1: 6.97 KB object code size  1.1/0.6/[0.4]
Matrix Compiler2: 5.11 KB object code size  0.5/0.7/[0.4]

