Circuit: * D:\Univsersity\2021-3rd Year S2\Design (E) - 344\GitRepo\E344\LTspice\A4\E344_23252162_A4.asc

Direct Newton iteration for .op point succeeded.

Date: Fri Sep 03 15:58:15 2021
Total elapsed time: 0.380 seconds.

tnom = 27
temp = 27
method = modified trap
totiter = 64063
traniter = 64060
tranpoints = 32031
accept = 32031
rejected = 0
matrix size = 6
fillins = 2
solver = Normal
Matrix Compiler1: 186 bytes object code size  0.1/0.0/[0.0]
Matrix Compiler2: off  [0.1]/0.1/0.1

