Circuit: * D:\Univsersity\2021-3rd Year S2\Design (E) - 344\GitRepo\E344\LTspice\A4\E344_23252162_A4.asc

Direct Newton iteration for .op point succeeded.

Date: Thu Sep 02 16:15:09 2021
Total elapsed time: 0.222 seconds.

tnom = 27
temp = 27
method = modified trap
totiter = 64063
traniter = 64060
tranpoints = 32031
accept = 32031
rejected = 0
matrix size = 6
fillins = 2
solver = Normal
Matrix Compiler1:      11 opcodes  0.1/[0.0]/0.1
Matrix Compiler2: 400 bytes object code size  0.1/0.1/[0.1]

