Circuit: * D:\Univsersity\2021-3rd Year S2\Design (E) - 344\GitRepo\E344\LTspice\A7\Draft1.asc

Direct Newton iteration for .op point succeeded.

Date: Thu Oct 14 18:44:02 2021
Total elapsed time: 0.031 seconds.

tnom = 27
temp = 27
method = modified trap
totiter = 2101
traniter = 2094
tranpoints = 1048
accept = 1048
rejected = 0
matrix size = 4
fillins = 0
solver = Normal
Matrix Compiler1:       6 opcodes  0.0/[0.0]/0.0
Matrix Compiler2: off  [0.0]/0.1/0.0

