Circuit: * D:\Univsersity\2021-3rd Year S2\Design (E) - 344\GitRepo\E344\LTspice\A7\Draft1.asc

Direct Newton iteration for .op point succeeded.

Date: Thu Oct 07 14:48:22 2021
Total elapsed time: 0.072 seconds.

tnom = 27
temp = 27
method = modified trap
totiter = 2120
traniter = 2090
tranpoints = 1046
accept = 1046
rejected = 0
matrix size = 32
fillins = 8
solver = Normal
Matrix Compiler1: 2.28 KB object code size  0.4/0.2/[0.2]
Matrix Compiler2: off  [0.2]/0.4/0.2

