Circuit: * D:\Univsersity\2021-3rd Year S2\Design (E) - 344\GitRepo\E344\LTspice\A7\E344_23252162_A7.asc

V5: Removing PWL point (7.5,1)
V3: Removing PWL point (7.5,0)
V_ldr: Removing PWL point (7.5,500000)
Direct Newton iteration for .op point succeeded.

Date: Fri Oct 08 09:37:28 2021
Total elapsed time: 0.128 seconds.

tnom = 27
temp = 27
method = modified trap
totiter = 2442
traniter = 2411
tranpoints = 1134
accept = 1111
rejected = 23
matrix size = 60
fillins = 42
solver = Normal
Thread vector: 7.7/5.5[2] 2.2/1.8[2] 1.0/1.1[1] 0.1/0.4[1]  2592/500
Matrix Compiler1: 5.90 KB object code size  0.9/0.5/[0.4]
Matrix Compiler2: 5.33 KB object code size  0.4/0.6/[0.3]

